data_Pure_Al_9x5
_audit_creation_date              2023-04-28
_audit_creation_method            'Materials Studio'
_symmetry_space_group_name_H-M    'P1'
_symmetry_Int_Tables_number       1
_symmetry_cell_setting            triclinic
loop_
_symmetry_equiv_pos_as_xyz
  x,y,z
_cell_length_a                    22.2717
_cell_length_b                    38.4693
_cell_length_c                    18.2223
_cell_angle_alpha                 90.0000
_cell_angle_beta                  90.0000
_cell_angle_gamma                 90.0000
loop_
_atom_site_label
_atom_site_type_symbol
_atom_site_fract_x
_atom_site_fract_y
_atom_site_fract_z
_atom_site_U_iso_or_equiv
_atom_site_adp_type
_atom_site_occupancy
Al1    Al    0.04550   0.02630   0.94440   0.00000  Uiso   1.00
Al2    Al    0.95450   0.02630   0.94440   0.00000  Uiso   1.00
Al3    Al    0.04550   0.02630   0.05560   0.00000  Uiso   1.00
Al4    Al    0.04550   0.97370   0.05560   0.00000  Uiso   1.00
Al5    Al    0.95450   0.02630   0.05560   0.00000  Uiso   1.00
Al6    Al    0.95450   0.97370   0.05560   0.00000  Uiso   1.00
Al7    Al    0.04550   0.02630   0.72220   0.00000  Uiso   1.00
Al8    Al    0.95450   0.02630   0.72220   0.00000  Uiso   1.00
Al9    Al    0.04550   0.02630   0.50000   0.00000  Uiso   1.00
Al10   Al    0.95450   0.02630   0.50000   0.00000  Uiso   1.00
Al11   Al    0.04550   0.02630   0.27780   0.00000  Uiso   1.00
Al12   Al    0.95450   0.02630   0.27780   0.00000  Uiso   1.00
Al13   Al    0.22730   0.02630   0.94440   0.00000  Uiso   1.00
Al14   Al    0.22730   0.02630   0.05560   0.00000  Uiso   1.00
Al15   Al    0.22730   0.97370   0.05560   0.00000  Uiso   1.00
Al16   Al    0.22730   0.02630   0.72220   0.00000  Uiso   1.00
Al17   Al    0.22730   0.02630   0.50000   0.00000  Uiso   1.00
Al18   Al    0.22730   0.02630   0.27780   0.00000  Uiso   1.00
Al19   Al    0.40910   0.02630   0.94440   0.00000  Uiso   1.00
Al20   Al    0.40910   0.02630   0.05560   0.00000  Uiso   1.00
Al21   Al    0.40910   0.97370   0.05560   0.00000  Uiso   1.00
Al22   Al    0.40910   0.02630   0.72220   0.00000  Uiso   1.00
Al23   Al    0.40910   0.02630   0.50000   0.00000  Uiso   1.00
Al24   Al    0.40910   0.02630   0.27780   0.00000  Uiso   1.00
Al25   Al    0.59090   0.02630   0.94440   0.00000  Uiso   1.00
Al26   Al    0.59090   0.02630   0.05560   0.00000  Uiso   1.00
Al27   Al    0.59090   0.97370   0.05560   0.00000  Uiso   1.00
Al28   Al    0.59090   0.02630   0.72220   0.00000  Uiso   1.00
Al29   Al    0.59090   0.02630   0.50000   0.00000  Uiso   1.00
Al30   Al    0.59090   0.02630   0.27780   0.00000  Uiso   1.00
Al31   Al    0.77270   0.02630   0.94440   0.00000  Uiso   1.00
Al32   Al    0.77270   0.02630   0.05560   0.00000  Uiso   1.00
Al33   Al    0.77270   0.97370   0.05560   0.00000  Uiso   1.00
Al34   Al    0.77270   0.02630   0.72220   0.00000  Uiso   1.00
Al35   Al    0.77270   0.02630   0.50000   0.00000  Uiso   1.00
Al36   Al    0.77270   0.02630   0.27780   0.00000  Uiso   1.00
Al37   Al    0.04550   0.13160   0.94440   0.00000  Uiso   1.00
Al38   Al    0.95450   0.13160   0.94440   0.00000  Uiso   1.00
Al39   Al    0.04550   0.13160   0.05560   0.00000  Uiso   1.00
Al40   Al    0.95450   0.13160   0.05560   0.00000  Uiso   1.00
Al41   Al    0.04550   0.13160   0.72220   0.00000  Uiso   1.00
Al42   Al    0.95450   0.13160   0.72220   0.00000  Uiso   1.00
Al43   Al    0.04550   0.13160   0.50000   0.00000  Uiso   1.00
Al44   Al    0.95450   0.13160   0.50000   0.00000  Uiso   1.00
Al45   Al    0.04550   0.13160   0.27780   0.00000  Uiso   1.00
Al46   Al    0.95450   0.13160   0.27780   0.00000  Uiso   1.00
Al47   Al    0.22730   0.13160   0.94440   0.00000  Uiso   1.00
Al48   Al    0.22730   0.13160   0.05560   0.00000  Uiso   1.00
Al49   Al    0.22730   0.13160   0.72220   0.00000  Uiso   1.00
Al50   Al    0.22730   0.13160   0.50000   0.00000  Uiso   1.00
Al51   Al    0.22730   0.13160   0.27780   0.00000  Uiso   1.00
Al52   Al    0.40910   0.13160   0.94440   0.00000  Uiso   1.00
Al53   Al    0.40910   0.13160   0.05560   0.00000  Uiso   1.00
Al54   Al    0.40910   0.13160   0.72220   0.00000  Uiso   1.00
Al55   Al    0.40910   0.13160   0.50000   0.00000  Uiso   1.00
Al56   Al    0.40910   0.13160   0.27780   0.00000  Uiso   1.00
Al57   Al    0.59090   0.13160   0.94440   0.00000  Uiso   1.00
Al58   Al    0.59090   0.13160   0.05560   0.00000  Uiso   1.00
Al59   Al    0.59090   0.13160   0.72220   0.00000  Uiso   1.00
Al60   Al    0.59090   0.13160   0.50000   0.00000  Uiso   1.00
Al61   Al    0.59090   0.13160   0.27780   0.00000  Uiso   1.00
Al62   Al    0.77270   0.13160   0.94440   0.00000  Uiso   1.00
Al63   Al    0.77270   0.13160   0.05560   0.00000  Uiso   1.00
Al64   Al    0.77270   0.13160   0.72220   0.00000  Uiso   1.00
Al65   Al    0.77270   0.13160   0.50000   0.00000  Uiso   1.00
Al66   Al    0.77270   0.13160   0.27780   0.00000  Uiso   1.00
Al67   Al    0.04550   0.23680   0.05560   0.00000  Uiso   1.00
Al68   Al    0.95450   0.23680   0.05560   0.00000  Uiso   1.00
Al69   Al    0.04550   0.23680   0.72220   0.00000  Uiso   1.00
Al70   Al    0.95450   0.23680   0.72220   0.00000  Uiso   1.00
Al71   Al    0.04550   0.23680   0.50000   0.00000  Uiso   1.00
Al72   Al    0.95450   0.23680   0.50000   0.00000  Uiso   1.00
Al73   Al    0.04550   0.23680   0.27780   0.00000  Uiso   1.00
Al74   Al    0.95450   0.23680   0.27780   0.00000  Uiso   1.00
Al75   Al    0.22730   0.23680   0.05560   0.00000  Uiso   1.00
Al76   Al    0.22730   0.23680   0.72220   0.00000  Uiso   1.00
Al77   Al    0.22730   0.23680   0.50000   0.00000  Uiso   1.00
Al78   Al    0.22730   0.23680   0.27780   0.00000  Uiso   1.00
Al79   Al    0.40910   0.23680   0.05560   0.00000  Uiso   1.00
Al80   Al    0.40910   0.23680   0.72220   0.00000  Uiso   1.00
Al81   Al    0.40910   0.23680   0.50000   0.00000  Uiso   1.00
Al82   Al    0.40910   0.23680   0.27780   0.00000  Uiso   1.00
Al83   Al    0.59090   0.23680   0.05560   0.00000  Uiso   1.00
Al84   Al    0.59090   0.23680   0.72220   0.00000  Uiso   1.00
Al85   Al    0.59090   0.23680   0.50000   0.00000  Uiso   1.00
Al86   Al    0.59090   0.23680   0.27780   0.00000  Uiso   1.00
Al87   Al    0.77270   0.23680   0.05560   0.00000  Uiso   1.00
Al88   Al    0.77270   0.23680   0.72220   0.00000  Uiso   1.00
Al89   Al    0.77270   0.23680   0.50000   0.00000  Uiso   1.00
Al90   Al    0.77270   0.23680   0.27780   0.00000  Uiso   1.00
Al91   Al    0.04550   0.34210   0.05560   0.00000  Uiso   1.00
Al92   Al    0.95450   0.34210   0.05560   0.00000  Uiso   1.00
Al93   Al    0.04550   0.34210   0.72220   0.00000  Uiso   1.00
Al94   Al    0.95450   0.34210   0.72220   0.00000  Uiso   1.00
Al95   Al    0.04550   0.34210   0.50000   0.00000  Uiso   1.00
Al96   Al    0.95450   0.34210   0.50000   0.00000  Uiso   1.00
Al97   Al    0.04550   0.34210   0.27780   0.00000  Uiso   1.00
Al98   Al    0.95450   0.34210   0.27780   0.00000  Uiso   1.00
Al99   Al    0.22730   0.34210   0.05560   0.00000  Uiso   1.00
Al100  Al    0.22730   0.34210   0.72220   0.00000  Uiso   1.00
Al101  Al    0.22730   0.34210   0.50000   0.00000  Uiso   1.00
Al102  Al    0.22730   0.34210   0.27780   0.00000  Uiso   1.00
Al103  Al    0.40910   0.34210   0.05560   0.00000  Uiso   1.00
Al104  Al    0.40910   0.34210   0.72220   0.00000  Uiso   1.00
Al105  Al    0.40910   0.34210   0.50000   0.00000  Uiso   1.00
Al106  Al    0.40910   0.34210   0.27780   0.00000  Uiso   1.00
Al107  Al    0.59090   0.34210   0.05560   0.00000  Uiso   1.00
Al108  Al    0.59090   0.34210   0.72220   0.00000  Uiso   1.00
Al109  Al    0.59090   0.34210   0.50000   0.00000  Uiso   1.00
Al110  Al    0.59090   0.34210   0.27780   0.00000  Uiso   1.00
Al111  Al    0.77270   0.34210   0.05560   0.00000  Uiso   1.00
Al112  Al    0.77270   0.34210   0.72220   0.00000  Uiso   1.00
Al113  Al    0.77270   0.34210   0.50000   0.00000  Uiso   1.00
Al114  Al    0.77270   0.34210   0.27780   0.00000  Uiso   1.00
Al115  Al    0.04550   0.44740   0.05560   0.00000  Uiso   1.00
Al116  Al    0.95450   0.44740   0.05560   0.00000  Uiso   1.00
Al117  Al    0.04550   0.44740   0.50000   0.00000  Uiso   1.00
Al118  Al    0.95450   0.44740   0.50000   0.00000  Uiso   1.00
Al119  Al    0.04550   0.44740   0.27780   0.00000  Uiso   1.00
Al120  Al    0.95450   0.44740   0.27780   0.00000  Uiso   1.00
Al121  Al    0.22730   0.44740   0.05560   0.00000  Uiso   1.00
Al122  Al    0.22730   0.44740   0.50000   0.00000  Uiso   1.00
Al123  Al    0.22730   0.44740   0.27780   0.00000  Uiso   1.00
Al124  Al    0.40910   0.44740   0.05560   0.00000  Uiso   1.00
Al125  Al    0.40910   0.44740   0.50000   0.00000  Uiso   1.00
Al126  Al    0.40910   0.44740   0.27780   0.00000  Uiso   1.00
Al127  Al    0.59090   0.44740   0.05560   0.00000  Uiso   1.00
Al128  Al    0.59090   0.44740   0.50000   0.00000  Uiso   1.00
Al129  Al    0.59090   0.44740   0.27780   0.00000  Uiso   1.00
Al130  Al    0.77270   0.44740   0.05560   0.00000  Uiso   1.00
Al131  Al    0.77270   0.44740   0.50000   0.00000  Uiso   1.00
Al132  Al    0.77270   0.44740   0.27780   0.00000  Uiso   1.00
Al133  Al    0.04550   0.55260   0.05560   0.00000  Uiso   1.00
Al134  Al    0.95450   0.55260   0.05560   0.00000  Uiso   1.00
Al135  Al    0.04550   0.55260   0.50000   0.00000  Uiso   1.00
Al136  Al    0.95450   0.55260   0.50000   0.00000  Uiso   1.00
Al137  Al    0.04550   0.55260   0.27780   0.00000  Uiso   1.00
Al138  Al    0.95450   0.55260   0.27780   0.00000  Uiso   1.00
Al139  Al    0.22730   0.55260   0.05560   0.00000  Uiso   1.00
Al140  Al    0.22730   0.55260   0.50000   0.00000  Uiso   1.00
Al141  Al    0.22730   0.55260   0.27780   0.00000  Uiso   1.00
Al142  Al    0.40910   0.55260   0.05560   0.00000  Uiso   1.00
Al143  Al    0.40910   0.55260   0.50000   0.00000  Uiso   1.00
Al144  Al    0.40910   0.55260   0.27780   0.00000  Uiso   1.00
Al145  Al    0.59090   0.55260   0.05560   0.00000  Uiso   1.00
Al146  Al    0.59090   0.55260   0.50000   0.00000  Uiso   1.00
Al147  Al    0.59090   0.55260   0.27780   0.00000  Uiso   1.00
Al148  Al    0.77270   0.55260   0.05560   0.00000  Uiso   1.00
Al149  Al    0.77270   0.55260   0.50000   0.00000  Uiso   1.00
Al150  Al    0.77270   0.55260   0.27780   0.00000  Uiso   1.00
Al151  Al    0.04550   0.65790   0.05560   0.00000  Uiso   1.00
Al152  Al    0.95450   0.65790   0.05560   0.00000  Uiso   1.00
Al153  Al    0.04550   0.65790   0.27780   0.00000  Uiso   1.00
Al154  Al    0.95450   0.65790   0.27780   0.00000  Uiso   1.00
Al155  Al    0.22730   0.65790   0.05560   0.00000  Uiso   1.00
Al156  Al    0.22730   0.65790   0.27780   0.00000  Uiso   1.00
Al157  Al    0.40910   0.65790   0.05560   0.00000  Uiso   1.00
Al158  Al    0.40910   0.65790   0.27780   0.00000  Uiso   1.00
Al159  Al    0.59090   0.65790   0.05560   0.00000  Uiso   1.00
Al160  Al    0.59090   0.65790   0.27780   0.00000  Uiso   1.00
Al161  Al    0.77270   0.65790   0.05560   0.00000  Uiso   1.00
Al162  Al    0.77270   0.65790   0.27780   0.00000  Uiso   1.00
Al163  Al    0.04550   0.76320   0.05560   0.00000  Uiso   1.00
Al164  Al    0.95450   0.76320   0.05560   0.00000  Uiso   1.00
Al165  Al    0.04550   0.76320   0.27780   0.00000  Uiso   1.00
Al166  Al    0.95450   0.76320   0.27780   0.00000  Uiso   1.00
Al167  Al    0.22730   0.76320   0.05560   0.00000  Uiso   1.00
Al168  Al    0.22730   0.76320   0.27780   0.00000  Uiso   1.00
Al169  Al    0.40910   0.76320   0.05560   0.00000  Uiso   1.00
Al170  Al    0.40910   0.76320   0.27780   0.00000  Uiso   1.00
Al171  Al    0.59090   0.76320   0.05560   0.00000  Uiso   1.00
Al172  Al    0.59090   0.76320   0.27780   0.00000  Uiso   1.00
Al173  Al    0.77270   0.76320   0.05560   0.00000  Uiso   1.00
Al174  Al    0.77270   0.76320   0.27780   0.00000  Uiso   1.00
Al175  Al    0.04550   0.86840   0.05560   0.00000  Uiso   1.00
Al176  Al    0.95450   0.86840   0.05560   0.00000  Uiso   1.00
Al177  Al    0.22730   0.86840   0.05560   0.00000  Uiso   1.00
Al178  Al    0.40910   0.86840   0.05560   0.00000  Uiso   1.00
Al179  Al    0.59090   0.86840   0.05560   0.00000  Uiso   1.00
Al180  Al    0.77270   0.86840   0.05560   0.00000  Uiso   1.00
Al181  Al    0.13640   0.02630   0.83330   0.00000  Uiso   1.00
Al182  Al    0.13640   0.02630   0.61110   0.00000  Uiso   1.00
Al183  Al    0.13640   0.02630   0.38890   0.00000  Uiso   1.00
Al184  Al    0.13640   0.02630   0.16670   0.00000  Uiso   1.00
Al185  Al    0.13640   0.97370   0.16670   0.00000  Uiso   1.00
Al186  Al    0.31820   0.02630   0.83330   0.00000  Uiso   1.00
Al187  Al    0.31820   0.02630   0.61110   0.00000  Uiso   1.00
Al188  Al    0.31820   0.02630   0.38890   0.00000  Uiso   1.00
Al189  Al    0.31820   0.02630   0.16670   0.00000  Uiso   1.00
Al190  Al    0.31820   0.97370   0.16670   0.00000  Uiso   1.00
Al191  Al    0.50000   0.02630   0.83330   0.00000  Uiso   1.00
Al192  Al    0.50000   0.02630   0.61110   0.00000  Uiso   1.00
Al193  Al    0.50000   0.02630   0.38890   0.00000  Uiso   1.00
Al194  Al    0.50000   0.02630   0.16670   0.00000  Uiso   1.00
Al195  Al    0.50000   0.97370   0.16670   0.00000  Uiso   1.00
Al196  Al    0.68180   0.02630   0.83330   0.00000  Uiso   1.00
Al197  Al    0.68180   0.02630   0.61110   0.00000  Uiso   1.00
Al198  Al    0.68180   0.02630   0.38890   0.00000  Uiso   1.00
Al199  Al    0.68180   0.02630   0.16670   0.00000  Uiso   1.00
Al200  Al    0.68180   0.97370   0.16670   0.00000  Uiso   1.00
Al201  Al    0.86360   0.02630   0.83330   0.00000  Uiso   1.00
Al202  Al    0.86360   0.02630   0.61110   0.00000  Uiso   1.00
Al203  Al    0.86360   0.02630   0.38890   0.00000  Uiso   1.00
Al204  Al    0.86360   0.02630   0.16670   0.00000  Uiso   1.00
Al205  Al    0.86360   0.97370   0.16670   0.00000  Uiso   1.00
Al206  Al    0.13640   0.13160   0.83330   0.00000  Uiso   1.00
Al207  Al    0.13640   0.13160   0.61110   0.00000  Uiso   1.00
Al208  Al    0.13640   0.13160   0.38890   0.00000  Uiso   1.00
Al209  Al    0.13640   0.13160   0.16670   0.00000  Uiso   1.00
Al210  Al    0.31820   0.13160   0.83330   0.00000  Uiso   1.00
Al211  Al    0.31820   0.13160   0.61110   0.00000  Uiso   1.00
Al212  Al    0.31820   0.13160   0.38890   0.00000  Uiso   1.00
Al213  Al    0.31820   0.13160   0.16670   0.00000  Uiso   1.00
Al214  Al    0.50000   0.13160   0.83330   0.00000  Uiso   1.00
Al215  Al    0.50000   0.13160   0.61110   0.00000  Uiso   1.00
Al216  Al    0.50000   0.13160   0.38890   0.00000  Uiso   1.00
Al217  Al    0.50000   0.13160   0.16670   0.00000  Uiso   1.00
Al218  Al    0.68180   0.13160   0.83330   0.00000  Uiso   1.00
Al219  Al    0.68180   0.13160   0.61110   0.00000  Uiso   1.00
Al220  Al    0.68180   0.13160   0.38890   0.00000  Uiso   1.00
Al221  Al    0.68180   0.13160   0.16670   0.00000  Uiso   1.00
Al222  Al    0.86360   0.13160   0.83330   0.00000  Uiso   1.00
Al223  Al    0.86360   0.13160   0.61110   0.00000  Uiso   1.00
Al224  Al    0.86360   0.13160   0.38890   0.00000  Uiso   1.00
Al225  Al    0.86360   0.13160   0.16670   0.00000  Uiso   1.00
Al226  Al    0.13640   0.23680   0.61110   0.00000  Uiso   1.00
Al227  Al    0.13640   0.23680   0.38890   0.00000  Uiso   1.00
Al228  Al    0.13640   0.23680   0.16670   0.00000  Uiso   1.00
Al229  Al    0.31820   0.23680   0.61110   0.00000  Uiso   1.00
Al230  Al    0.31820   0.23680   0.38890   0.00000  Uiso   1.00
Al231  Al    0.31820   0.23680   0.16670   0.00000  Uiso   1.00
Al232  Al    0.50000   0.23680   0.61110   0.00000  Uiso   1.00
Al233  Al    0.50000   0.23680   0.38890   0.00000  Uiso   1.00
Al234  Al    0.50000   0.23680   0.16670   0.00000  Uiso   1.00
Al235  Al    0.68180   0.23680   0.61110   0.00000  Uiso   1.00
Al236  Al    0.68180   0.23680   0.38890   0.00000  Uiso   1.00
Al237  Al    0.68180   0.23680   0.16670   0.00000  Uiso   1.00
Al238  Al    0.86360   0.23680   0.61110   0.00000  Uiso   1.00
Al239  Al    0.86360   0.23680   0.38890   0.00000  Uiso   1.00
Al240  Al    0.86360   0.23680   0.16670   0.00000  Uiso   1.00
Al241  Al    0.13640   0.34210   0.61110   0.00000  Uiso   1.00
Al242  Al    0.13640   0.34210   0.38890   0.00000  Uiso   1.00
Al243  Al    0.13640   0.34210   0.16670   0.00000  Uiso   1.00
Al244  Al    0.31820   0.34210   0.61110   0.00000  Uiso   1.00
Al245  Al    0.31820   0.34210   0.38890   0.00000  Uiso   1.00
Al246  Al    0.31820   0.34210   0.16670   0.00000  Uiso   1.00
Al247  Al    0.50000   0.34210   0.61110   0.00000  Uiso   1.00
Al248  Al    0.50000   0.34210   0.38890   0.00000  Uiso   1.00
Al249  Al    0.50000   0.34210   0.16670   0.00000  Uiso   1.00
Al250  Al    0.68180   0.34210   0.61110   0.00000  Uiso   1.00
Al251  Al    0.68180   0.34210   0.38890   0.00000  Uiso   1.00
Al252  Al    0.68180   0.34210   0.16670   0.00000  Uiso   1.00
Al253  Al    0.86360   0.34210   0.61110   0.00000  Uiso   1.00
Al254  Al    0.86360   0.34210   0.38890   0.00000  Uiso   1.00
Al255  Al    0.86360   0.34210   0.16670   0.00000  Uiso   1.00
Al256  Al    0.13640   0.44740   0.38890   0.00000  Uiso   1.00
Al257  Al    0.13640   0.44740   0.16670   0.00000  Uiso   1.00
Al258  Al    0.31820   0.44740   0.38890   0.00000  Uiso   1.00
Al259  Al    0.31820   0.44740   0.16670   0.00000  Uiso   1.00
Al260  Al    0.50000   0.44740   0.38890   0.00000  Uiso   1.00
Al261  Al    0.50000   0.44740   0.16670   0.00000  Uiso   1.00
Al262  Al    0.68180   0.44740   0.38890   0.00000  Uiso   1.00
Al263  Al    0.68180   0.44740   0.16670   0.00000  Uiso   1.00
Al264  Al    0.86360   0.44740   0.38890   0.00000  Uiso   1.00
Al265  Al    0.86360   0.44740   0.16670   0.00000  Uiso   1.00
Al266  Al    0.13640   0.55260   0.38890   0.00000  Uiso   1.00
Al267  Al    0.13640   0.55260   0.16670   0.00000  Uiso   1.00
Al268  Al    0.31820   0.55260   0.38890   0.00000  Uiso   1.00
Al269  Al    0.31820   0.55260   0.16670   0.00000  Uiso   1.00
Al270  Al    0.50000   0.55260   0.38890   0.00000  Uiso   1.00
Al271  Al    0.50000   0.55260   0.16670   0.00000  Uiso   1.00
Al272  Al    0.68180   0.55260   0.38890   0.00000  Uiso   1.00
Al273  Al    0.68180   0.55260   0.16670   0.00000  Uiso   1.00
Al274  Al    0.86360   0.55260   0.38890   0.00000  Uiso   1.00
Al275  Al    0.86360   0.55260   0.16670   0.00000  Uiso   1.00
Al276  Al    0.13640   0.65790   0.16670   0.00000  Uiso   1.00
Al277  Al    0.31820   0.65790   0.16670   0.00000  Uiso   1.00
Al278  Al    0.50000   0.65790   0.16670   0.00000  Uiso   1.00
Al279  Al    0.68180   0.65790   0.16670   0.00000  Uiso   1.00
Al280  Al    0.86360   0.65790   0.16670   0.00000  Uiso   1.00
Al281  Al    0.13640   0.76320   0.16670   0.00000  Uiso   1.00
Al282  Al    0.31820   0.76320   0.16670   0.00000  Uiso   1.00
Al283  Al    0.50000   0.76320   0.16670   0.00000  Uiso   1.00
Al284  Al    0.68180   0.76320   0.16670   0.00000  Uiso   1.00
Al285  Al    0.86360   0.76320   0.16670   0.00000  Uiso   1.00
Al286  Al    0.13640   0.86840   0.16670   0.00000  Uiso   1.00
Al287  Al    0.31820   0.86840   0.16670   0.00000  Uiso   1.00
Al288  Al    0.50000   0.86840   0.16670   0.00000  Uiso   1.00
Al289  Al    0.68180   0.86840   0.16670   0.00000  Uiso   1.00
Al290  Al    0.86360   0.86840   0.16670   0.00000  Uiso   1.00
Ag291  Ag    0.13640   0.07890   0.94440   0.00000  Uiso   1.00
Al292  Al    0.13640   0.07890   0.05560   0.00000  Uiso   1.00
Al293  Al    0.13640   0.07890   0.72220   0.00000  Uiso   1.00
Al294  Al    0.13640   0.07890   0.50000   0.00000  Uiso   1.00
Al295  Al    0.13640   0.07890   0.27780   0.00000  Uiso   1.00
Al296  Al    0.31820   0.07890   0.94440   0.00000  Uiso   1.00
Al297  Al    0.31820   0.07890   0.05560   0.00000  Uiso   1.00
Ag298  Ag    0.31820   0.07890   0.72220   0.00000  Uiso   1.00
Al299  Al    0.31820   0.07890   0.50000   0.00000  Uiso   1.00
Al300  Al    0.31820   0.07890   0.27780   0.00000  Uiso   1.00
Al301  Al    0.50000   0.07890   0.94440   0.00000  Uiso   1.00
Al302  Al    0.50000   0.07890   0.05560   0.00000  Uiso   1.00
Al303  Al    0.50000   0.07890   0.72220   0.00000  Uiso   1.00
Ag304  Ag    0.50000   0.07890   0.50000   0.00000  Uiso   1.00
Al305  Al    0.50000   0.07890   0.27780   0.00000  Uiso   1.00
Al306  Al    0.68180   0.07890   0.94440   0.00000  Uiso   1.00
Al307  Al    0.68180   0.07890   0.05560   0.00000  Uiso   1.00
Al308  Al    0.68180   0.07890   0.72220   0.00000  Uiso   1.00
Al309  Al    0.68180   0.07890   0.50000   0.00000  Uiso   1.00
Ag310  Ag    0.68180   0.07890   0.27780   0.00000  Uiso   1.00
Al311  Al    0.86360   0.07890   0.94440   0.00000  Uiso   1.00
Ag312  Ag    0.86360   0.07890   0.05560   0.00000  Uiso   1.00
Al313  Al    0.86360   0.07890   0.72220   0.00000  Uiso   1.00
Al314  Al    0.86360   0.07890   0.50000   0.00000  Uiso   1.00
Al315  Al    0.86360   0.07890   0.27780   0.00000  Uiso   1.00
Al316  Al    0.13640   0.18420   0.05560   0.00000  Uiso   1.00
Al317  Al    0.13640   0.18420   0.72220   0.00000  Uiso   1.00
Al318  Al    0.13640   0.18420   0.50000   0.00000  Uiso   1.00
Al319  Al    0.13640   0.18420   0.27780   0.00000  Uiso   1.00
Al320  Al    0.31820   0.18420   0.05560   0.00000  Uiso   1.00
Al321  Al    0.31820   0.18420   0.72220   0.00000  Uiso   1.00
Al322  Al    0.31820   0.18420   0.50000   0.00000  Uiso   1.00
Al323  Al    0.31820   0.18420   0.27780   0.00000  Uiso   1.00
Al324  Al    0.50000   0.18420   0.05560   0.00000  Uiso   1.00
Al325  Al    0.50000   0.18420   0.72220   0.00000  Uiso   1.00
Al326  Al    0.50000   0.18420   0.50000   0.00000  Uiso   1.00
Al327  Al    0.50000   0.18420   0.27780   0.00000  Uiso   1.00
Al328  Al    0.68180   0.18420   0.05560   0.00000  Uiso   1.00
Al329  Al    0.68180   0.18420   0.72220   0.00000  Uiso   1.00
Al330  Al    0.68180   0.18420   0.50000   0.00000  Uiso   1.00
Al331  Al    0.68180   0.18420   0.27780   0.00000  Uiso   1.00
Al332  Al    0.86360   0.18420   0.05560   0.00000  Uiso   1.00
Al333  Al    0.86360   0.18420   0.72220   0.00000  Uiso   1.00
Al334  Al    0.86360   0.18420   0.50000   0.00000  Uiso   1.00
Al335  Al    0.86360   0.18420   0.27780   0.00000  Uiso   1.00
Al336  Al    0.13640   0.28950   0.05560   0.00000  Uiso   1.00
Ag337  Ag    0.13640   0.28950   0.72220   0.00000  Uiso   1.00
Al338  Al    0.13640   0.28950   0.50000   0.00000  Uiso   1.00
Al339  Al    0.13640   0.28950   0.27780   0.00000  Uiso   1.00
Al340  Al    0.31820   0.28950   0.05560   0.00000  Uiso   1.00
Al341  Al    0.31820   0.28950   0.72220   0.00000  Uiso   1.00
Ag342  Ag    0.31820   0.28950   0.50000   0.00000  Uiso   1.00
Al343  Al    0.31820   0.28950   0.27780   0.00000  Uiso   1.00
Al344  Al    0.50000   0.28950   0.05560   0.00000  Uiso   1.00
Al345  Al    0.50000   0.28950   0.72220   0.00000  Uiso   1.00
Al346  Al    0.50000   0.28950   0.50000   0.00000  Uiso   1.00
Ag347  Ag    0.50000   0.28950   0.27780   0.00000  Uiso   1.00
Ag348  Ag    0.68180   0.28950   0.05560   0.00000  Uiso   1.00
Al349  Al    0.68180   0.28950   0.72220   0.00000  Uiso   1.00
Al350  Al    0.68180   0.28950   0.50000   0.00000  Uiso   1.00
Al351  Al    0.68180   0.28950   0.27780   0.00000  Uiso   1.00
Al352  Al    0.86360   0.28950   0.05560   0.00000  Uiso   1.00
Ag353  Ag    0.86360   0.28950   0.72220   0.00000  Uiso   1.00
Al354  Al    0.86360   0.28950   0.50000   0.00000  Uiso   1.00
Al355  Al    0.86360   0.28950   0.27780   0.00000  Uiso   1.00
Al356  Al    0.13640   0.39470   0.05560   0.00000  Uiso   1.00
Al357  Al    0.13640   0.39470   0.50000   0.00000  Uiso   1.00
Al358  Al    0.13640   0.39470   0.27780   0.00000  Uiso   1.00
Al359  Al    0.31820   0.39470   0.05560   0.00000  Uiso   1.00
Al360  Al    0.31820   0.39470   0.50000   0.00000  Uiso   1.00
Al361  Al    0.31820   0.39470   0.27780   0.00000  Uiso   1.00
Al362  Al    0.50000   0.39470   0.05560   0.00000  Uiso   1.00
Al363  Al    0.50000   0.39470   0.50000   0.00000  Uiso   1.00
Al364  Al    0.50000   0.39470   0.27780   0.00000  Uiso   1.00
Al365  Al    0.68180   0.39470   0.05560   0.00000  Uiso   1.00
Al366  Al    0.68180   0.39470   0.50000   0.00000  Uiso   1.00
Al367  Al    0.68180   0.39470   0.27780   0.00000  Uiso   1.00
Al368  Al    0.86360   0.39470   0.05560   0.00000  Uiso   1.00
Al369  Al    0.86360   0.39470   0.50000   0.00000  Uiso   1.00
Al370  Al    0.86360   0.39470   0.27780   0.00000  Uiso   1.00
Al371  Al    0.13640   0.50000   0.05560   0.00000  Uiso   1.00
Ag372  Ag    0.13640   0.50000   0.50000   0.00000  Uiso   1.00
Al373  Al    0.13640   0.50000   0.27780   0.00000  Uiso   1.00
Al374  Al    0.31820   0.50000   0.05560   0.00000  Uiso   1.00
Al375  Al    0.31820   0.50000   0.50000   0.00000  Uiso   1.00
Ag376  Ag    0.31820   0.50000   0.27780   0.00000  Uiso   1.00
Ag377  Ag    0.50000   0.50000   0.05560   0.00000  Uiso   1.00
Al378  Al    0.50000   0.50000   0.50000   0.00000  Uiso   1.00
Al379  Al    0.50000   0.50000   0.27780   0.00000  Uiso   1.00
Al380  Al    0.68180   0.50000   0.05560   0.00000  Uiso   1.00
Ag381  Ag    0.68180   0.50000   0.50000   0.00000  Uiso   1.00
Al382  Al    0.68180   0.50000   0.27780   0.00000  Uiso   1.00
Al383  Al    0.86360   0.50000   0.05560   0.00000  Uiso   1.00
Al384  Al    0.86360   0.50000   0.50000   0.00000  Uiso   1.00
Ag385  Ag    0.86360   0.50000   0.27780   0.00000  Uiso   1.00
Al386  Al    0.13640   0.60530   0.05560   0.00000  Uiso   1.00
Al387  Al    0.13640   0.60530   0.27780   0.00000  Uiso   1.00
Al388  Al    0.31820   0.60530   0.05560   0.00000  Uiso   1.00
Al389  Al    0.31820   0.60530   0.27780   0.00000  Uiso   1.00
Al390  Al    0.50000   0.60530   0.05560   0.00000  Uiso   1.00
Al391  Al    0.50000   0.60530   0.27780   0.00000  Uiso   1.00
Al392  Al    0.68180   0.60530   0.05560   0.00000  Uiso   1.00
Al393  Al    0.68180   0.60530   0.27780   0.00000  Uiso   1.00
Al394  Al    0.86360   0.60530   0.05560   0.00000  Uiso   1.00
Al395  Al    0.86360   0.60530   0.27780   0.00000  Uiso   1.00
Al396  Al    0.13640   0.71050   0.05560   0.00000  Uiso   1.00
Ag397  Ag    0.13640   0.71050   0.27780   0.00000  Uiso   1.00
Ag398  Ag    0.31820   0.71050   0.05560   0.00000  Uiso   1.00
Al399  Al    0.31820   0.71050   0.27780   0.00000  Uiso   1.00
Al400  Al    0.50000   0.71050   0.05560   0.00000  Uiso   1.00
Ag401  Ag    0.50000   0.71050   0.27780   0.00000  Uiso   1.00
Ag402  Ag    0.68180   0.71050   0.05560   0.00000  Uiso   1.00
Al403  Al    0.68180   0.71050   0.27780   0.00000  Uiso   1.00
Al404  Al    0.86360   0.71050   0.05560   0.00000  Uiso   1.00
Ag405  Ag    0.86360   0.71050   0.27780   0.00000  Uiso   1.00
Al406  Al    0.13640   0.81580   0.05560   0.00000  Uiso   1.00
Al407  Al    0.31820   0.81580   0.05560   0.00000  Uiso   1.00
Al408  Al    0.50000   0.81580   0.05560   0.00000  Uiso   1.00
Al409  Al    0.68180   0.81580   0.05560   0.00000  Uiso   1.00
Al410  Al    0.86360   0.81580   0.05560   0.00000  Uiso   1.00
Ag411  Ag    0.13640   0.92110   0.05560   0.00000  Uiso   1.00
Ag412  Ag    0.31820   0.92110   0.05560   0.00000  Uiso   1.00
Ag413  Ag    0.50000   0.92110   0.05560   0.00000  Uiso   1.00
Ag414  Ag    0.68180   0.92110   0.05560   0.00000  Uiso   1.00
Ag415  Ag    0.86360   0.92110   0.05560   0.00000  Uiso   1.00
Al416  Al    0.04550   0.07890   0.83330   0.00000  Uiso   1.00
Al417  Al    0.95450   0.07890   0.83330   0.00000  Uiso   1.00
Al418  Al    0.04550   0.07890   0.61110   0.00000  Uiso   1.00
Al419  Al    0.95450   0.07890   0.61110   0.00000  Uiso   1.00
Al420  Al    0.04550   0.07890   0.38890   0.00000  Uiso   1.00
Al421  Al    0.95450   0.07890   0.38890   0.00000  Uiso   1.00
Al422  Al    0.04550   0.07890   0.16670   0.00000  Uiso   1.00
Al423  Al    0.95450   0.07890   0.16670   0.00000  Uiso   1.00
Al424  Al    0.22730   0.07890   0.83330   0.00000  Uiso   1.00
Al425  Al    0.22730   0.07890   0.61110   0.00000  Uiso   1.00
Al426  Al    0.22730   0.07890   0.38890   0.00000  Uiso   1.00
Al427  Al    0.22730   0.07890   0.16670   0.00000  Uiso   1.00
Al428  Al    0.40910   0.07890   0.83330   0.00000  Uiso   1.00
Al429  Al    0.40910   0.07890   0.61110   0.00000  Uiso   1.00
Al430  Al    0.40910   0.07890   0.38890   0.00000  Uiso   1.00
Al431  Al    0.40910   0.07890   0.16670   0.00000  Uiso   1.00
Al432  Al    0.59090   0.07890   0.83330   0.00000  Uiso   1.00
Al433  Al    0.59090   0.07890   0.61110   0.00000  Uiso   1.00
Al434  Al    0.59090   0.07890   0.38890   0.00000  Uiso   1.00
Al435  Al    0.59090   0.07890   0.16670   0.00000  Uiso   1.00
Al436  Al    0.77270   0.07890   0.83330   0.00000  Uiso   1.00
Al437  Al    0.77270   0.07890   0.61110   0.00000  Uiso   1.00
Al438  Al    0.77270   0.07890   0.38890   0.00000  Uiso   1.00
Al439  Al    0.77270   0.07890   0.16670   0.00000  Uiso   1.00
Al440  Al    0.04550   0.18420   0.61110   0.00000  Uiso   1.00
Al441  Al    0.95450   0.18420   0.61110   0.00000  Uiso   1.00
Al442  Al    0.04550   0.18420   0.38890   0.00000  Uiso   1.00
Al443  Al    0.95450   0.18420   0.38890   0.00000  Uiso   1.00
Al444  Al    0.04550   0.18420   0.16670   0.00000  Uiso   1.00
Al445  Al    0.95450   0.18420   0.16670   0.00000  Uiso   1.00
Al446  Al    0.22730   0.18420   0.61110   0.00000  Uiso   1.00
Al447  Al    0.22730   0.18420   0.38890   0.00000  Uiso   1.00
Al448  Al    0.22730   0.18420   0.16670   0.00000  Uiso   1.00
Al449  Al    0.40910   0.18420   0.61110   0.00000  Uiso   1.00
Al450  Al    0.40910   0.18420   0.38890   0.00000  Uiso   1.00
Al451  Al    0.40910   0.18420   0.16670   0.00000  Uiso   1.00
Al452  Al    0.59090   0.18420   0.61110   0.00000  Uiso   1.00
Al453  Al    0.59090   0.18420   0.38890   0.00000  Uiso   1.00
Al454  Al    0.59090   0.18420   0.16670   0.00000  Uiso   1.00
Al455  Al    0.77270   0.18420   0.61110   0.00000  Uiso   1.00
Al456  Al    0.77270   0.18420   0.38890   0.00000  Uiso   1.00
Al457  Al    0.77270   0.18420   0.16670   0.00000  Uiso   1.00
Al458  Al    0.04550   0.28950   0.61110   0.00000  Uiso   1.00
Al459  Al    0.95450   0.28950   0.61110   0.00000  Uiso   1.00
Al460  Al    0.04550   0.28950   0.38890   0.00000  Uiso   1.00
Al461  Al    0.95450   0.28950   0.38890   0.00000  Uiso   1.00
Al462  Al    0.04550   0.28950   0.16670   0.00000  Uiso   1.00
Al463  Al    0.95450   0.28950   0.16670   0.00000  Uiso   1.00
Al464  Al    0.22730   0.28950   0.61110   0.00000  Uiso   1.00
Al465  Al    0.22730   0.28950   0.38890   0.00000  Uiso   1.00
Al466  Al    0.22730   0.28950   0.16670   0.00000  Uiso   1.00
Al467  Al    0.40910   0.28950   0.61110   0.00000  Uiso   1.00
Al468  Al    0.40910   0.28950   0.38890   0.00000  Uiso   1.00
Al469  Al    0.40910   0.28950   0.16670   0.00000  Uiso   1.00
Al470  Al    0.59090   0.28950   0.61110   0.00000  Uiso   1.00
Al471  Al    0.59090   0.28950   0.38890   0.00000  Uiso   1.00
Al472  Al    0.59090   0.28950   0.16670   0.00000  Uiso   1.00
Al473  Al    0.77270   0.28950   0.61110   0.00000  Uiso   1.00
Al474  Al    0.77270   0.28950   0.38890   0.00000  Uiso   1.00
Al475  Al    0.77270   0.28950   0.16670   0.00000  Uiso   1.00
Al476  Al    0.04550   0.39470   0.38890   0.00000  Uiso   1.00
Al477  Al    0.95450   0.39470   0.38890   0.00000  Uiso   1.00
Al478  Al    0.04550   0.39470   0.16670   0.00000  Uiso   1.00
Al479  Al    0.95450   0.39470   0.16670   0.00000  Uiso   1.00
Al480  Al    0.22730   0.39470   0.38890   0.00000  Uiso   1.00
Al481  Al    0.22730   0.39470   0.16670   0.00000  Uiso   1.00
Al482  Al    0.40910   0.39470   0.38890   0.00000  Uiso   1.00
Al483  Al    0.40910   0.39470   0.16670   0.00000  Uiso   1.00
Al484  Al    0.59090   0.39470   0.38890   0.00000  Uiso   1.00
Al485  Al    0.59090   0.39470   0.16670   0.00000  Uiso   1.00
Al486  Al    0.77270   0.39470   0.38890   0.00000  Uiso   1.00
Al487  Al    0.77270   0.39470   0.16670   0.00000  Uiso   1.00
Al488  Al    0.04550   0.50000   0.38890   0.00000  Uiso   1.00
Al489  Al    0.95450   0.50000   0.38890   0.00000  Uiso   1.00
Al490  Al    0.04550   0.50000   0.16670   0.00000  Uiso   1.00
Al491  Al    0.95450   0.50000   0.16670   0.00000  Uiso   1.00
Al492  Al    0.22730   0.50000   0.38890   0.00000  Uiso   1.00
Al493  Al    0.22730   0.50000   0.16670   0.00000  Uiso   1.00
Al494  Al    0.40910   0.50000   0.38890   0.00000  Uiso   1.00
Al495  Al    0.40910   0.50000   0.16670   0.00000  Uiso   1.00
Al496  Al    0.59090   0.50000   0.38890   0.00000  Uiso   1.00
Al497  Al    0.59090   0.50000   0.16670   0.00000  Uiso   1.00
Al498  Al    0.77270   0.50000   0.38890   0.00000  Uiso   1.00
Al499  Al    0.77270   0.50000   0.16670   0.00000  Uiso   1.00
Al500  Al    0.04550   0.60530   0.16670   0.00000  Uiso   1.00
Al501  Al    0.95450   0.60530   0.16670   0.00000  Uiso   1.00
Al502  Al    0.22730   0.60530   0.16670   0.00000  Uiso   1.00
Al503  Al    0.40910   0.60530   0.16670   0.00000  Uiso   1.00
Al504  Al    0.59090   0.60530   0.16670   0.00000  Uiso   1.00
Al505  Al    0.77270   0.60530   0.16670   0.00000  Uiso   1.00
Al506  Al    0.04550   0.71050   0.16670   0.00000  Uiso   1.00
Al507  Al    0.95450   0.71050   0.16670   0.00000  Uiso   1.00
Al508  Al    0.22730   0.71050   0.16670   0.00000  Uiso   1.00
Al509  Al    0.40910   0.71050   0.16670   0.00000  Uiso   1.00
Al510  Al    0.59090   0.71050   0.16670   0.00000  Uiso   1.00
Al511  Al    0.77270   0.71050   0.16670   0.00000  Uiso   1.00
Al512  Al    0.04550   0.81580   0.16670   0.00000  Uiso   1.00
Al513  Al    0.95450   0.81580   0.16670   0.00000  Uiso   1.00
Al514  Al    0.22730   0.81580   0.16670   0.00000  Uiso   1.00
Al515  Al    0.40910   0.81580   0.16670   0.00000  Uiso   1.00
Al516  Al    0.59090   0.81580   0.16670   0.00000  Uiso   1.00
Al517  Al    0.77270   0.81580   0.16670   0.00000  Uiso   1.00
Al518  Al    0.04550   0.92110   0.16670   0.00000  Uiso   1.00
Al519  Al    0.95450   0.92110   0.16670   0.00000  Uiso   1.00
Al520  Al    0.22730   0.92110   0.16670   0.00000  Uiso   1.00
Al521  Al    0.40910   0.92110   0.16670   0.00000  Uiso   1.00
Al522  Al    0.59090   0.92110   0.16670   0.00000  Uiso   1.00
Al523  Al    0.77270   0.92110   0.16670   0.00000  Uiso   1.00
